<?xml version="1.0" encoding="UTF-8"?>

<routes xmlns:xsi="http://www.w3.org/2001/XMLSchema-instance" xsi:noNamespaceSchemaLocation="http://sumo.dlr.de/xsd/routes_file.xsd">
    <route edges="-11.0.00 24.0.00 42.0.00 41.0.00 40.0.00 17.0.00 46.0.00 45.0.00 -9.0.00 -10.0.00 3.0.00 43.0.00 23.0.00 -52.0.00 -2.0.00 -44.0.00 8.0.00 7.0.00 6.0.00 33.0.00 31.0.00 28.0.00 27.0.00 37.0.00 35.0.00 -27.0.00 20.0.00 19.0.00 13.0.00 35.0.00 37.0.00 -13.0.00 -14.0.00 -16.0.00 -26.0.00 -21.0.00 -22.0.00 51.0.00 41.0.00 21.0.00 -30.0.00 -39.0.00 -0.0.00 -1.0.00 -2.0.00 -3.0.00 10.0.00 9.0.00 -45.0.00 -4.0.00 -8.0.00 -9.0.00 -10.0.00" color="yellow" id="ego_0"/>

    <vehicle id="0" type="vehicle.carlamotors.carlacola" route="ego_0" depart="0.00"/>
</routes>


