<?xml version="1.0" encoding='UTF-8'?>
<routes xmlns:xsi="http://www.w3.org/2001/XMLSchema-instance" xsi:noNamespaceSchemaLocation="http://sumo.dlr.de/xsd/routes_file.xsd">
  <route color="yellow" edges="-2.0.00 -3.0.00" id="421_-2_-3"/>
  <route color="yellow" edges="-2.0.00 -44.0.00" id="421_-2_-44"/>
  <route color="yellow" edges="-2.0.00 43.0.00" id="421_-2_43"/>
  <route color="yellow" edges="-43.0.00 -3.0.00" id="421_-43_-3"/>
  <route color="yellow" edges="-43.0.00 -44.0.00" id="421_-43_-44"/>
  <route color="yellow" edges="-43.0.00 2.0.00" id="421_-43_2"/>
  <route color="yellow" edges="3.0.00 -44.0.00" id="421_3_-44"/>
  <route color="yellow" edges="3.0.00 2.0.00" id="421_3_2"/>
  <route color="yellow" edges="3.0.00 43.0.00" id="421_3_43"/>
  <route color="yellow" edges="44.0.00 -3.0.00" id="421_44_-3"/>
  <route color="yellow" edges="44.0.00 2.0.00" id="421_44_2"/>
  <route color="yellow" edges="44.0.00 43.0.00" id="421_44_43"/>
  <vehicle depart="0.0" id="0" route="421_-2_43" type="vehicle.diamondback.century"/>
  <vehicle depart="1.0" id="1" route="421_3_-44" type="vehicle.bmw.grandtourer"/>
  <vehicle depart="2.0" id="2" route="421_3_2" type="vehicle.nissan.micra"/>
  <vehicle depart="3.0" id="3" route="421_44_-3" type="vehicle.nissan.patrol"/>
  <vehicle depart="4.0" id="4" route="421_44_2" type="vehicle.jeep.wrangler_rubicon"/>
  <vehicle depart="5.0" id="5" route="421_3_-44" type="vehicle.nissan.micra"/>
  <vehicle depart="6.0" id="6" route="421_3_2" type="vehicle.toyota.prius"/>
  <vehicle depart="7.0" id="7" route="421_44_43" type="vehicle.bh.crossbike"/>
  <vehicle depart="8.0" id="8" route="421_3_-44" type="vehicle.mini.cooperst"/>
  <vehicle depart="9.0" id="9" route="421_-2_43" type="vehicle.dodge_charger.police"/>
  <vehicle depart="10.0" id="10" route="421_-43_-3" type="vehicle.bmw.grandtourer"/>
  <vehicle depart="11.0" id="11" route="421_44_2" type="vehicle.bmw.grandtourer"/>
  <vehicle depart="12.0" id="12" route="421_44_2" type="vehicle.diamondback.century"/>
  <vehicle depart="13.0" id="13" route="421_44_-3" type="vehicle.yamaha.yzf"/>
  <vehicle depart="14.0" id="14" route="421_3_2" type="vehicle.diamondback.century"/>
  <vehicle depart="15.0" id="15" route="421_-2_-44" type="vehicle.diamondback.century"/>
  <vehicle depart="16.0" id="16" route="421_-2_-44" type="vehicle.audi.a2"/>
  <vehicle depart="17.0" id="17" route="421_44_-3" type="vehicle.bmw.grandtourer"/>
  <vehicle depart="18.0" id="18" route="421_44_2" type="vehicle.audi.a2"/>
  <vehicle depart="19.0" id="19" route="421_44_-3" type="vehicle.volkswagen.t2"/>
  <vehicle depart="20.0" id="20" route="421_-43_-3" type="vehicle.toyota.prius"/>
  <vehicle depart="21.0" id="21" route="421_-2_43" type="vehicle.citroen.c3"/>
  <vehicle depart="22.0" id="22" route="421_3_43" type="vehicle.bmw.grandtourer"/>
  <vehicle depart="23.0" id="23" route="421_-2_-44" type="vehicle.audi.etron"/>
  <vehicle depart="24.0" id="24" route="421_-2_43" type="vehicle.audi.etron"/>
  <vehicle depart="25.0" id="25" route="421_3_2" type="vehicle.jeep.wrangler_rubicon"/>
  <vehicle depart="26.0" id="26" route="421_3_-44" type="vehicle.chevrolet.impala"/>
  <vehicle depart="27.0" id="27" route="421_44_43" type="vehicle.lincoln.mkz2017"/>
  <vehicle depart="28.0" id="28" route="421_-2_-3" type="vehicle.kawasaki.ninja"/>
  <vehicle depart="29.0" id="29" route="421_3_-44" type="vehicle.mini.cooperst"/>
  <vehicle depart="30.0" id="30" route="421_3_-44" type="vehicle.seat.leon"/>
  <vehicle depart="31.0" id="31" route="421_44_2" type="vehicle.audi.tt"/>
  <vehicle depart="32.0" id="32" route="421_-2_-3" type="vehicle.chevrolet.impala"/>
  <vehicle depart="33.0" id="33" route="421_-43_2" type="vehicle.seat.leon"/>
  <vehicle depart="34.0" id="34" route="421_-43_-44" type="vehicle.nissan.patrol"/>
  <vehicle depart="35.0" id="35" route="421_44_2" type="vehicle.audi.a2"/>
  <vehicle depart="36.0" id="36" route="421_44_43" type="vehicle.chevrolet.impala"/>
  <vehicle depart="37.0" id="37" route="421_-2_-44" type="vehicle.nissan.micra"/>
  <vehicle depart="38.0" id="38" route="421_-43_-44" type="vehicle.seat.leon"/>
  <vehicle depart="39.0" id="39" route="421_3_2" type="vehicle.audi.etron"/>
  <vehicle depart="40.0" id="40" route="421_-43_2" type="vehicle.jeep.wrangler_rubicon"/>
  <vehicle depart="41.0" id="41" route="421_-43_2" type="vehicle.harley-davidson.low_rider"/>
  <vehicle depart="42.0" id="42" route="421_-43_-44" type="vehicle.audi.a2"/>
  <vehicle depart="43.0" id="43" route="421_3_2" type="vehicle.tesla.model3"/>
  <vehicle depart="44.0" id="44" route="421_-43_-44" type="vehicle.mercedes-benz.coupe"/>
  <vehicle depart="45.0" id="45" route="421_44_-3" type="vehicle.seat.leon"/>
  <vehicle depart="46.0" id="46" route="421_3_-44" type="vehicle.chevrolet.impala"/>
  <vehicle depart="47.0" id="47" route="421_3_43" type="vehicle.bmw.grandtourer"/>
  <vehicle depart="48.0" id="48" route="421_3_43" type="vehicle.bmw.grandtourer"/>
  <vehicle depart="49.0" id="49" route="421_-43_-3" type="vehicle.diamondback.century"/>
</routes>
