<?xml version='1.0' encoding='UTF-8'?>
<!--generated on 2021-01-21 18:32:27 by create_sumo_vtypes.py-->
<routes>
  <vType id="vehicle.audi.a2" length="3.705369472503662" width="1.7886788845062256" height="1.5470870733261108" vClass="passenger"/>
  <vType id="vehicle.audi.tt" length="4.181210041046143" width="1.9941171407699585" height="1.385296106338501" vClass="passenger"/>
  <vType id="vehicle.carlamotors.carlacola" length="5.203838348388672" width="2.614572286605835" height="2.467444658279419" vClass="truck" guiShape="truck"/>
  <vType id="vehicle.jeep.wrangler_rubicon" length="3.866220712661743" width="1.9051965475082397" height="1.8779358863830566" vClass="passenger"/>
  <vType id="vehicle.chevrolet.impala" length="5.357479572296143" width="2.033203125" height="1.4106584787368774" vClass="passenger"/>
  <vType id="vehicle.mini.cooperst" length="3.805800199508667" width="1.97027587890625" height="1.4750303030014038" vClass="passenger"/>
  <vType id="vehicle.nissan.micra" length="3.633375883102417" width="1.845113754272461" height="1.50146484375" vClass="passenger"/>
  <vType id="vehicle.nissan.patrol" length="4.6045098304748535" width="1.9315931797027588" height="1.8548461198806763" vClass="passenger"/>
  <vType id="vehicle.dodge_charger.police" length="4.974244117736816" width="2.0384013652801514" height="1.5542958974838257" vClass="authority" guiShape="police"/>
  <vType id="vehicle.lincoln2020.mkz2020" length="4.89238166809082" width="2.230602979660034" height="1.4801470041275024" vClass="passenger"/>
  <vType id="vehicle.bh.crossbike" length="1.4872888326644897" width="0.8592574596405029" height="1.2764478921890259" vClass="bicycle"/>
  <vType id="vehicle.seat.leon" length="4.1928300857543945" width="1.8161858320236206" height="1.4738311767578125" vClass="passenger"/>
  <vType id="vehicle.lincoln.mkz2017" length="4.901683330535889" width="2.128324270248413" height="1.5107464790344238" vClass="passenger"/>
  <vType id="vehicle.chargercop2020.chargercop2020" length="5.237514495849609" width="2.097083806991577" height="1.638383150100708" vClass="passenger"/>
  <vType id="vehicle.mercedesccc.mercedesccc" length="4.673638820648193" width="2.0022923946380615" height="1.441947340965271" vClass="passenger"/>
  <vType id="vehicle.charger2020.charger2020" length="5.006059646606445" width="2.097083806991577" height="1.5347249507904053" vClass="passenger"/>
  <vType id="vehicle.yamaha.yzf" length="2.2094459533691406" width="0.8670341968536377" height="1.2511454820632935" vClass="motorcycle"/>
  <vType id="vehicle.diamondback.century" length="1.6428436040878296" width="0.3725162446498871" height="1.495933175086975" vClass="bicycle"/>
  <vType id="vehicle.tesla.model3" length="4.791779518127441" width="2.163450002670288" height="1.488319993019104" vClass="evehicle"/>
  <vType id="vehicle.bmw.grandtourer" length="4.611005783081055" width="2.241713285446167" height="1.6672759056091309" vClass="passenger"/>
  <vType id="vehicle.mercedes-benz.coupe" length="5.0267767906188965" width="2.1515462398529053" height="1.6355280876159668" vClass="passenger"/>
  <vType id="vehicle.toyota.prius" length="4.513522624969482" width="2.006814479827881" height="1.5248334407806396" vClass="evehicle"/>
  <vType id="vehicle.bmw.isetta" length="2.2072951793670654" width="1.4809197187423706" height="1.3787471055984497" vClass="evehicle"/>
  <vType id="vehicle.audi.etron" length="4.855708599090576" width="2.0327565670013428" height="1.6493593454360962" vClass="evehicle"/>
  <vType id="vehicle.citroen.c3" length="3.987684965133667" width="1.8508483171463013" height="1.6171096563339233" vClass="passenger"/>
  <vType id="vehicle.mustang.mustang" length="4.717525005340576" width="1.894826889038086" height="1.300939917564392" vClass="passenger"/>
  <vType id="vehicle.gazelle.omafiets" length="1.8354405164718628" width="0.3289288878440857" height="1.4573156833648682" vClass="bicycle"/>
  <vType id="vehicle.harley-davidson.low_rider" length="2.3557403087615967" width="0.7636788487434387" height="1.3067951202392578" vClass="motorcycle"/>
  <vType id="vehicle.volkswagen.t2" length="4.4804368019104" width="2.069315195083618" height="2.0377910137176514" vClass="passenger" guiShape="passenger/van"/>
  <vType id="vehicle.tesla.cybertruck" length="6.273552894592285" width="2.3895740509033203" height="2.098191261291504" vClass="evehicle"/>
  <vType id="vehicle.kawasaki.ninja" length="2.0333523750305176" width="0.8025798797607422" height="1.199245572090149" vClass="motorcycle"/>
</routes>
